
*** ChampSim Multicore Out-of-Order Simulator ***

Warmup Instructions: 1000000
Simulation Instructions: 10000000
Configuration: 1
Number of CPUs: 1
LLC sets: 2048
LLC ways: 16
Off-chip DRAM Channels: 1 Width: 64-bit Data Rate: 1600 MT/s

CPU 0 runs /content/cacheforge/cacheforge/ChampSim_CRC2/traces/milc_409B.trace.gz
Heartbeat CPU 0 instructions: 1000000 cycles: 402731 heartbeat IPC: 2.48305 cumulative IPC: 2.48305 (Simulation time: 0 hr 0 min 4 sec) 

Warmup complete CPU 0 instructions: 1000004 cycles: 402732 (Simulation time: 0 hr 0 min 4 sec) 

Heartbeat CPU 0 instructions: 2000001 cycles: 2312095 heartbeat IPC: 0.523735 cumulative IPC: 0.523733 (Simulation time: 0 hr 0 min 10 sec) 
Heartbeat CPU 0 instructions: 3000003 cycles: 5708293 heartbeat IPC: 0.294448 cumulative IPC: 0.376963 (Simulation time: 0 hr 0 min 17 sec) 
Heartbeat CPU 0 instructions: 4000000 cycles: 9127163 heartbeat IPC: 0.292493 cumulative IPC: 0.343862 (Simulation time: 0 hr 0 min 25 sec) 
Heartbeat CPU 0 instructions: 5000002 cycles: 12177458 heartbeat IPC: 0.327838 cumulative IPC: 0.339711 (Simulation time: 0 hr 0 min 32 sec) 
Heartbeat CPU 0 instructions: 6000003 cycles: 14411042 heartbeat IPC: 0.447711 cumulative IPC: 0.356931 (Simulation time: 0 hr 0 min 38 sec) 
Heartbeat CPU 0 instructions: 7000002 cycles: 16591567 heartbeat IPC: 0.458605 cumulative IPC: 0.370626 (Simulation time: 0 hr 0 min 43 sec) 
Heartbeat CPU 0 instructions: 8000000 cycles: 18759525 heartbeat IPC: 0.461263 cumulative IPC: 0.38133 (Simulation time: 0 hr 0 min 49 sec) 
Heartbeat CPU 0 instructions: 9000003 cycles: 20946587 heartbeat IPC: 0.457236 cumulative IPC: 0.389411 (Simulation time: 0 hr 0 min 54 sec) 
Heartbeat CPU 0 instructions: 10000002 cycles: 23130803 heartbeat IPC: 0.45783 cumulative IPC: 0.395986 (Simulation time: 0 hr 1 min 0 sec) 
Heartbeat CPU 0 instructions: 11000002 cycles: 25324366 heartbeat IPC: 0.455879 cumulative IPC: 0.401258 (Simulation time: 0 hr 1 min 5 sec) 
Finished CPU 0 instructions: 10000002 cycles: 24921635 cummulative IPC: 0.401258 (Simulation time: 0 hr 1 min 5 sec) 

ChampSim completed all CPUs

Region of Interest Statistics

CPU 0 cummulative IPC: 0.401258 instructions: 10000002 cycles: 24921635
LLC TOTAL     ACCESS:     552388  HIT:      35539  MISS:     516849
LLC LOAD      ACCESS:     244438  HIT:      17395  MISS:     227043
LLC RFO       ACCESS:     130690  HIT:          1  MISS:     130689
LLC PREFETCH  ACCESS:          0  HIT:          0  MISS:          0
LLC WRITEBACK ACCESS:     177260  HIT:      18143  MISS:     159117
ChronoEntropy: access_ctr = 579941
