
*** ChampSim Multicore Out-of-Order Simulator ***

Warmup Instructions: 1000000
Simulation Instructions: 10000000
Configuration: 1
Number of CPUs: 1
LLC sets: 2048
LLC ways: 16
Off-chip DRAM Channels: 1 Width: 64-bit Data Rate: 1600 MT/s

CPU 0 runs /content/cacheforge/cacheforge/ChampSim_CRC2/traces/astar_313B.trace.gz
Heartbeat CPU 0 instructions: 1000001 cycles: 678651 heartbeat IPC: 1.47351 cumulative IPC: 1.47351 (Simulation time: 0 hr 0 min 5 sec) 

Warmup complete CPU 0 instructions: 1000001 cycles: 678651 (Simulation time: 0 hr 0 min 5 sec) 

Heartbeat CPU 0 instructions: 2000003 cycles: 11084847 heartbeat IPC: 0.0960968 cumulative IPC: 0.0960968 (Simulation time: 0 hr 0 min 13 sec) 
Heartbeat CPU 0 instructions: 3000003 cycles: 18321681 heartbeat IPC: 0.138182 cumulative IPC: 0.113359 (Simulation time: 0 hr 0 min 19 sec) 
Heartbeat CPU 0 instructions: 4000000 cycles: 25825876 heartbeat IPC: 0.133258 cumulative IPC: 0.119297 (Simulation time: 0 hr 0 min 25 sec) 
Heartbeat CPU 0 instructions: 5000002 cycles: 33756077 heartbeat IPC: 0.1261 cumulative IPC: 0.120928 (Simulation time: 0 hr 0 min 32 sec) 
Heartbeat CPU 0 instructions: 6000001 cycles: 44288265 heartbeat IPC: 0.0949469 cumulative IPC: 0.114654 (Simulation time: 0 hr 0 min 40 sec) 
Heartbeat CPU 0 instructions: 7000000 cycles: 54491174 heartbeat IPC: 0.0980112 cumulative IPC: 0.111498 (Simulation time: 0 hr 0 min 47 sec) 
Heartbeat CPU 0 instructions: 8000000 cycles: 65461767 heartbeat IPC: 0.0911528 cumulative IPC: 0.108053 (Simulation time: 0 hr 0 min 55 sec) 
Heartbeat CPU 0 instructions: 9000001 cycles: 75545631 heartbeat IPC: 0.0991684 cumulative IPC: 0.106856 (Simulation time: 0 hr 1 min 2 sec) 
Heartbeat CPU 0 instructions: 10000002 cycles: 82339101 heartbeat IPC: 0.1472 cumulative IPC: 0.110212 (Simulation time: 0 hr 1 min 9 sec) 
Heartbeat CPU 0 instructions: 11000000 cycles: 89358274 heartbeat IPC: 0.142467 cumulative IPC: 0.112765 (Simulation time: 0 hr 1 min 15 sec) 
Finished CPU 0 instructions: 10000003 cycles: 88679625 cummulative IPC: 0.112766 (Simulation time: 0 hr 1 min 15 sec) 

ChampSim completed all CPUs

Region of Interest Statistics

CPU 0 cummulative IPC: 0.112766 instructions: 10000003 cycles: 88679625
LLC TOTAL     ACCESS:    1128784  HIT:     407839  MISS:     720945
LLC LOAD      ACCESS:     241904  HIT:      38528  MISS:     203376
LLC RFO       ACCESS:     402461  HIT:     139471  MISS:     262990
LLC PREFETCH  ACCESS:          0  HIT:          0  MISS:          0
LLC WRITEBACK ACCESS:     484419  HIT:     229840  MISS:     254579
