
*** ChampSim Multicore Out-of-Order Simulator ***

Warmup Instructions: 1000000
Simulation Instructions: 10000000
Configuration: 1
Number of CPUs: 1
LLC sets: 2048
LLC ways: 16
Off-chip DRAM Channels: 1 Width: 64-bit Data Rate: 1600 MT/s

CPU 0 runs /content/cacheforge/cacheforge/ChampSim_CRC2/traces/mcf_250B.trace.gz
Heartbeat CPU 0 instructions: 1000000 cycles: 526713 heartbeat IPC: 1.89857 cumulative IPC: 1.89857 (Simulation time: 0 hr 0 min 5 sec) 

Warmup complete CPU 0 instructions: 1000004 cycles: 526714 (Simulation time: 0 hr 0 min 5 sec) 

Heartbeat CPU 0 instructions: 2000002 cycles: 14871545 heartbeat IPC: 0.0697117 cumulative IPC: 0.0697114 (Simulation time: 0 hr 0 min 15 sec) 
Heartbeat CPU 0 instructions: 3000002 cycles: 26604338 heartbeat IPC: 0.0852312 cumulative IPC: 0.076694 (Simulation time: 0 hr 0 min 23 sec) 
Heartbeat CPU 0 instructions: 4000000 cycles: 41153351 heartbeat IPC: 0.068733 cumulative IPC: 0.0738431 (Simulation time: 0 hr 0 min 31 sec) 
Heartbeat CPU 0 instructions: 5000001 cycles: 54289712 heartbeat IPC: 0.0761247 cumulative IPC: 0.0744006 (Simulation time: 0 hr 0 min 40 sec) 
Heartbeat CPU 0 instructions: 6000000 cycles: 67444086 heartbeat IPC: 0.0760203 cumulative IPC: 0.074719 (Simulation time: 0 hr 0 min 49 sec) 
Heartbeat CPU 0 instructions: 7000002 cycles: 82620683 heartbeat IPC: 0.0658911 cumulative IPC: 0.073087 (Simulation time: 0 hr 0 min 58 sec) 
Heartbeat CPU 0 instructions: 8000000 cycles: 97314173 heartbeat IPC: 0.0680572 cumulative IPC: 0.0723234 (Simulation time: 0 hr 1 min 7 sec) 
Heartbeat CPU 0 instructions: 9000002 cycles: 111794562 heartbeat IPC: 0.0690591 cumulative IPC: 0.0718986 (Simulation time: 0 hr 1 min 17 sec) 
Heartbeat CPU 0 instructions: 10000000 cycles: 125708932 heartbeat IPC: 0.071868 cumulative IPC: 0.0718952 (Simulation time: 0 hr 1 min 25 sec) 
Heartbeat CPU 0 instructions: 11000001 cycles: 139676173 heartbeat IPC: 0.0715962 cumulative IPC: 0.0718651 (Simulation time: 0 hr 1 min 34 sec) 
Finished CPU 0 instructions: 10000000 cycles: 139149461 cummulative IPC: 0.0718652 (Simulation time: 0 hr 1 min 34 sec) 

ChampSim completed all CPUs

Region of Interest Statistics

CPU 0 cummulative IPC: 0.0718652 instructions: 10000000 cycles: 139149461
LLC TOTAL     ACCESS:    1427501  HIT:     584722  MISS:     842779
LLC LOAD      ACCESS:    1374730  HIT:     559822  MISS:     814908
LLC RFO       ACCESS:       2527  HIT:       1334  MISS:       1193
LLC PREFETCH  ACCESS:          0  HIT:          0  MISS:          0
LLC WRITEBACK ACCESS:      50244  HIT:      23566  MISS:      26678
ChronoEntropy: access_ctr = 1595685
