
*** ChampSim Multicore Out-of-Order Simulator ***

Warmup Instructions: 1000000
Simulation Instructions: 10000000
Configuration: 1
Number of CPUs: 1
LLC sets: 2048
LLC ways: 16
Off-chip DRAM Channels: 1 Width: 64-bit Data Rate: 1600 MT/s

CPU 0 runs /content/cacheforge/cacheforge/ChampSim_CRC2/traces/lbm_564B.trace.gz
Heartbeat CPU 0 instructions: 1000000 cycles: 390238 heartbeat IPC: 2.56254 cumulative IPC: 2.56254 (Simulation time: 0 hr 0 min 5 sec) 

Warmup complete CPU 0 instructions: 1000004 cycles: 390239 (Simulation time: 0 hr 0 min 5 sec) 

Heartbeat CPU 0 instructions: 2000001 cycles: 2192937 heartbeat IPC: 0.554724 cumulative IPC: 0.554722 (Simulation time: 0 hr 0 min 10 sec) 
Heartbeat CPU 0 instructions: 3000002 cycles: 4059008 heartbeat IPC: 0.535886 cumulative IPC: 0.545141 (Simulation time: 0 hr 0 min 15 sec) 
Heartbeat CPU 0 instructions: 4000000 cycles: 5891320 heartbeat IPC: 0.545757 cumulative IPC: 0.545347 (Simulation time: 0 hr 0 min 21 sec) 
Heartbeat CPU 0 instructions: 5000002 cycles: 7804355 heartbeat IPC: 0.522731 cumulative IPC: 0.539511 (Simulation time: 0 hr 0 min 26 sec) 
Heartbeat CPU 0 instructions: 6000002 cycles: 9656274 heartbeat IPC: 0.53998 cumulative IPC: 0.539605 (Simulation time: 0 hr 0 min 32 sec) 
Heartbeat CPU 0 instructions: 7000000 cycles: 11520509 heartbeat IPC: 0.536412 cumulative IPC: 0.53907 (Simulation time: 0 hr 0 min 37 sec) 
Heartbeat CPU 0 instructions: 8000000 cycles: 13433854 heartbeat IPC: 0.522645 cumulative IPC: 0.536661 (Simulation time: 0 hr 0 min 42 sec) 
Heartbeat CPU 0 instructions: 9000000 cycles: 15311846 heartbeat IPC: 0.532484 cumulative IPC: 0.536135 (Simulation time: 0 hr 0 min 48 sec) 
Heartbeat CPU 0 instructions: 10000001 cycles: 17162990 heartbeat IPC: 0.540207 cumulative IPC: 0.536584 (Simulation time: 0 hr 0 min 53 sec) 
Heartbeat CPU 0 instructions: 11000000 cycles: 19045264 heartbeat IPC: 0.531272 cumulative IPC: 0.536048 (Simulation time: 0 hr 0 min 59 sec) 
Finished CPU 0 instructions: 10000000 cycles: 18655026 cummulative IPC: 0.536049 (Simulation time: 0 hr 0 min 59 sec) 

ChampSim completed all CPUs

Region of Interest Statistics

CPU 0 cummulative IPC: 0.536049 instructions: 10000000 cycles: 18655026
LLC TOTAL     ACCESS:     528398  HIT:     232419  MISS:     295979
LLC LOAD      ACCESS:      73999  HIT:          0  MISS:      73999
LLC RFO       ACCESS:     227243  HIT:       5273  MISS:     221970
LLC PREFETCH  ACCESS:          0  HIT:          0  MISS:          0
LLC WRITEBACK ACCESS:     227156  HIT:     227146  MISS:         10
EGAA stats: avg_age = 11.5815, avg_entropy = 11.0291
