
*** ChampSim Multicore Out-of-Order Simulator ***

Warmup Instructions: 1000000
Simulation Instructions: 10000000
Configuration: 1
Number of CPUs: 1
LLC sets: 2048
LLC ways: 16
Off-chip DRAM Channels: 1 Width: 64-bit Data Rate: 1600 MT/s

CPU 0 runs /content/cacheforge/cacheforge/ChampSim_CRC2/traces/mcf_250B.trace.gz
Heartbeat CPU 0 instructions: 1000000 cycles: 527804 heartbeat IPC: 1.89464 cumulative IPC: 1.89464 (Simulation time: 0 hr 0 min 4 sec) 

Warmup complete CPU 0 instructions: 1000004 cycles: 527805 (Simulation time: 0 hr 0 min 4 sec) 

Heartbeat CPU 0 instructions: 2000002 cycles: 15400772 heartbeat IPC: 0.0672362 cumulative IPC: 0.0672359 (Simulation time: 0 hr 0 min 14 sec) 
Heartbeat CPU 0 instructions: 3000002 cycles: 26849473 heartbeat IPC: 0.0873462 cumulative IPC: 0.075983 (Simulation time: 0 hr 0 min 21 sec) 
Heartbeat CPU 0 instructions: 4000000 cycles: 41182424 heartbeat IPC: 0.0697692 cumulative IPC: 0.0737923 (Simulation time: 0 hr 0 min 31 sec) 
Heartbeat CPU 0 instructions: 5000001 cycles: 54160780 heartbeat IPC: 0.0770514 cumulative IPC: 0.0745809 (Simulation time: 0 hr 0 min 40 sec) 
Heartbeat CPU 0 instructions: 6000000 cycles: 67283296 heartbeat IPC: 0.0762048 cumulative IPC: 0.0749001 (Simulation time: 0 hr 0 min 47 sec) 
Heartbeat CPU 0 instructions: 7000002 cycles: 83673580 heartbeat IPC: 0.0610119 cumulative IPC: 0.0721624 (Simulation time: 0 hr 0 min 58 sec) 
Heartbeat CPU 0 instructions: 8000000 cycles: 98609761 heartbeat IPC: 0.0669514 cumulative IPC: 0.0713688 (Simulation time: 0 hr 1 min 7 sec) 
Heartbeat CPU 0 instructions: 9000000 cycles: 113396032 heartbeat IPC: 0.0676303 cumulative IPC: 0.0708791 (Simulation time: 0 hr 1 min 16 sec) 
Heartbeat CPU 0 instructions: 10000000 cycles: 127647072 heartbeat IPC: 0.0701703 cumulative IPC: 0.0707996 (Simulation time: 0 hr 1 min 25 sec) 
Heartbeat CPU 0 instructions: 11000001 cycles: 142105785 heartbeat IPC: 0.0691625 cumulative IPC: 0.0706324 (Simulation time: 0 hr 1 min 34 sec) 
Finished CPU 0 instructions: 10000000 cycles: 141577982 cummulative IPC: 0.0706325 (Simulation time: 0 hr 1 min 34 sec) 

ChampSim completed all CPUs

Region of Interest Statistics

CPU 0 cummulative IPC: 0.0706325 instructions: 10000000 cycles: 141577982
LLC TOTAL     ACCESS:    1427527  HIT:     589472  MISS:     838055
LLC LOAD      ACCESS:    1374754  HIT:     538813  MISS:     835941
LLC RFO       ACCESS:       2527  HIT:       1081  MISS:       1446
LLC PREFETCH  ACCESS:          0  HIT:          0  MISS:          0
LLC WRITEBACK ACCESS:      50246  HIT:      49578  MISS:        668
Avg conflict per line: 0
