
*** ChampSim Multicore Out-of-Order Simulator ***

Warmup Instructions: 1000000
Simulation Instructions: 10000000
Configuration: 1
Number of CPUs: 1
LLC sets: 2048
LLC ways: 16
Off-chip DRAM Channels: 1 Width: 64-bit Data Rate: 1600 MT/s

CPU 0 runs /content/cacheforge/cacheforge/ChampSim_CRC2/traces/mcf_250B.trace.gz
Heartbeat CPU 0 instructions: 1000000 cycles: 527894 heartbeat IPC: 1.89432 cumulative IPC: 1.89432 (Simulation time: 0 hr 0 min 5 sec) 

Warmup complete CPU 0 instructions: 1000004 cycles: 527895 (Simulation time: 0 hr 0 min 5 sec) 

Heartbeat CPU 0 instructions: 2000002 cycles: 15635958 heartbeat IPC: 0.06619 cumulative IPC: 0.0661897 (Simulation time: 0 hr 0 min 15 sec) 
Heartbeat CPU 0 instructions: 3000002 cycles: 27530687 heartbeat IPC: 0.0840709 cumulative IPC: 0.0740663 (Simulation time: 0 hr 0 min 23 sec) 
Heartbeat CPU 0 instructions: 4000000 cycles: 42414067 heartbeat IPC: 0.0671889 cumulative IPC: 0.0716226 (Simulation time: 0 hr 0 min 32 sec) 
Heartbeat CPU 0 instructions: 5000001 cycles: 55902294 heartbeat IPC: 0.0741388 cumulative IPC: 0.0722355 (Simulation time: 0 hr 0 min 41 sec) 
Heartbeat CPU 0 instructions: 6000000 cycles: 69553794 heartbeat IPC: 0.0732519 cumulative IPC: 0.0724365 (Simulation time: 0 hr 0 min 50 sec) 
Heartbeat CPU 0 instructions: 7000002 cycles: 86340429 heartbeat IPC: 0.0595713 cumulative IPC: 0.0699198 (Simulation time: 0 hr 1 min 0 sec) 
Heartbeat CPU 0 instructions: 8000000 cycles: 101870033 heartbeat IPC: 0.064393 cumulative IPC: 0.0690729 (Simulation time: 0 hr 1 min 9 sec) 
Heartbeat CPU 0 instructions: 9000002 cycles: 117281060 heartbeat IPC: 0.0648887 cumulative IPC: 0.0685206 (Simulation time: 0 hr 1 min 18 sec) 
Heartbeat CPU 0 instructions: 10000000 cycles: 132116343 heartbeat IPC: 0.0674067 cumulative IPC: 0.068395 (Simulation time: 0 hr 1 min 28 sec) 
Heartbeat CPU 0 instructions: 11000001 cycles: 147154708 heartbeat IPC: 0.0664967 cumulative IPC: 0.0682003 (Simulation time: 0 hr 1 min 36 sec) 
Finished CPU 0 instructions: 10000000 cycles: 146626815 cummulative IPC: 0.0682003 (Simulation time: 0 hr 1 min 36 sec) 

ChampSim completed all CPUs

Region of Interest Statistics

CPU 0 cummulative IPC: 0.0682003 instructions: 10000000 cycles: 146626815
LLC TOTAL     ACCESS:    1427521  HIT:     535086  MISS:     892435
LLC LOAD      ACCESS:    1374748  HIT:     484097  MISS:     890651
LLC RFO       ACCESS:       2527  HIT:       1127  MISS:       1400
LLC PREFETCH  ACCESS:          0  HIT:          0  MISS:          0
LLC WRITEBACK ACCESS:      50246  HIT:      49862  MISS:        384
