
*** ChampSim Multicore Out-of-Order Simulator ***

Warmup Instructions: 1000000
Simulation Instructions: 10000000
Configuration: 1
Number of CPUs: 1
LLC sets: 2048
LLC ways: 16
Off-chip DRAM Channels: 1 Width: 64-bit Data Rate: 1600 MT/s

CPU 0 runs /content/cacheforge/cacheforge/ChampSim_CRC2/traces/milc_409B.trace.gz
Heartbeat CPU 0 instructions: 1000000 cycles: 402731 heartbeat IPC: 2.48305 cumulative IPC: 2.48305 (Simulation time: 0 hr 0 min 4 sec) 

Warmup complete CPU 0 instructions: 1000004 cycles: 402732 (Simulation time: 0 hr 0 min 4 sec) 

Heartbeat CPU 0 instructions: 2000002 cycles: 2440744 heartbeat IPC: 0.490675 cumulative IPC: 0.490673 (Simulation time: 0 hr 0 min 10 sec) 
Heartbeat CPU 0 instructions: 3000003 cycles: 6612615 heartbeat IPC: 0.239701 cumulative IPC: 0.322067 (Simulation time: 0 hr 0 min 18 sec) 
Heartbeat CPU 0 instructions: 4000000 cycles: 10784384 heartbeat IPC: 0.239706 cumulative IPC: 0.288971 (Simulation time: 0 hr 0 min 26 sec) 
Heartbeat CPU 0 instructions: 5000002 cycles: 14156890 heartbeat IPC: 0.296516 cumulative IPC: 0.290821 (Simulation time: 0 hr 0 min 33 sec) 
Heartbeat CPU 0 instructions: 6000003 cycles: 16466189 heartbeat IPC: 0.433032 cumulative IPC: 0.311265 (Simulation time: 0 hr 0 min 39 sec) 
Heartbeat CPU 0 instructions: 7000002 cycles: 18774824 heartbeat IPC: 0.433156 cumulative IPC: 0.326582 (Simulation time: 0 hr 0 min 44 sec) 
Heartbeat CPU 0 instructions: 8000000 cycles: 21067090 heartbeat IPC: 0.436249 cumulative IPC: 0.338747 (Simulation time: 0 hr 0 min 51 sec) 
Heartbeat CPU 0 instructions: 9000003 cycles: 23361370 heartbeat IPC: 0.435868 cumulative IPC: 0.348453 (Simulation time: 0 hr 0 min 56 sec) 
Heartbeat CPU 0 instructions: 10000002 cycles: 25648555 heartbeat IPC: 0.437218 cumulative IPC: 0.356495 (Simulation time: 0 hr 1 min 2 sec) 
Heartbeat CPU 0 instructions: 11000002 cycles: 27906908 heartbeat IPC: 0.442801 cumulative IPC: 0.363581 (Simulation time: 0 hr 1 min 7 sec) 
Finished CPU 0 instructions: 10000002 cycles: 27504177 cummulative IPC: 0.363581 (Simulation time: 0 hr 1 min 7 sec) 

ChampSim completed all CPUs

Region of Interest Statistics

CPU 0 cummulative IPC: 0.363581 instructions: 10000002 cycles: 27504177
LLC TOTAL     ACCESS:     552388  HIT:     171874  MISS:     380514
LLC LOAD      ACCESS:     244438  HIT:        408  MISS:     244030
LLC RFO       ACCESS:     130690  HIT:          0  MISS:     130690
LLC PREFETCH  ACCESS:          0  HIT:          0  MISS:          0
LLC WRITEBACK ACCESS:     177260  HIT:     171466  MISS:       5794
Avg conflict per line: 0
