
*** ChampSim Multicore Out-of-Order Simulator ***

Warmup Instructions: 1000000
Simulation Instructions: 10000000
Configuration: 1
Number of CPUs: 1
LLC sets: 2048
LLC ways: 16
Off-chip DRAM Channels: 1 Width: 64-bit Data Rate: 1600 MT/s

CPU 0 runs /content/cacheforge/cacheforge/ChampSim_CRC2/traces/astar_313B.trace.gz
Heartbeat CPU 0 instructions: 1000001 cycles: 678651 heartbeat IPC: 1.47351 cumulative IPC: 1.47351 (Simulation time: 0 hr 0 min 6 sec) 

Warmup complete CPU 0 instructions: 1000001 cycles: 678651 (Simulation time: 0 hr 0 min 6 sec) 

Heartbeat CPU 0 instructions: 2000003 cycles: 11260588 heartbeat IPC: 0.0945008 cumulative IPC: 0.0945008 (Simulation time: 0 hr 0 min 14 sec) 
Heartbeat CPU 0 instructions: 3000003 cycles: 18984668 heartbeat IPC: 0.129465 cumulative IPC: 0.109254 (Simulation time: 0 hr 0 min 21 sec) 
Heartbeat CPU 0 instructions: 4000000 cycles: 26953519 heartbeat IPC: 0.125488 cumulative IPC: 0.114178 (Simulation time: 0 hr 0 min 27 sec) 
Heartbeat CPU 0 instructions: 5000002 cycles: 35018465 heartbeat IPC: 0.123994 cumulative IPC: 0.116483 (Simulation time: 0 hr 0 min 34 sec) 
Heartbeat CPU 0 instructions: 6000001 cycles: 45736494 heartbeat IPC: 0.0933006 cumulative IPC: 0.110968 (Simulation time: 0 hr 0 min 41 sec) 
Heartbeat CPU 0 instructions: 7000000 cycles: 57421992 heartbeat IPC: 0.0855761 cumulative IPC: 0.105739 (Simulation time: 0 hr 0 min 50 sec) 
Heartbeat CPU 0 instructions: 8000000 cycles: 69837479 heartbeat IPC: 0.0805446 cumulative IPC: 0.101216 (Simulation time: 0 hr 0 min 59 sec) 
Heartbeat CPU 0 instructions: 9000001 cycles: 81158214 heartbeat IPC: 0.0883336 cumulative IPC: 0.0994041 (Simulation time: 0 hr 1 min 7 sec) 
Heartbeat CPU 0 instructions: 10000002 cycles: 88931220 heartbeat IPC: 0.12865 cumulative IPC: 0.10198 (Simulation time: 0 hr 1 min 14 sec) 
Heartbeat CPU 0 instructions: 11000000 cycles: 96763990 heartbeat IPC: 0.127668 cumulative IPC: 0.104074 (Simulation time: 0 hr 1 min 20 sec) 
Finished CPU 0 instructions: 10000003 cycles: 96085341 cummulative IPC: 0.104074 (Simulation time: 0 hr 1 min 20 sec) 

ChampSim completed all CPUs

Region of Interest Statistics

CPU 0 cummulative IPC: 0.104074 instructions: 10000003 cycles: 96085341
LLC TOTAL     ACCESS:    1128784  HIT:     514428  MISS:     614356
LLC LOAD      ACCESS:     241902  HIT:      10323  MISS:     231579
LLC RFO       ACCESS:     402463  HIT:      19861  MISS:     382602
LLC PREFETCH  ACCESS:          0  HIT:          0  MISS:          0
LLC WRITEBACK ACCESS:     484419  HIT:     484244  MISS:        175
EGAA stats: avg_age = 10.3941, avg_entropy = 11.5182
